LTspice 24.0.9 for Windows
Circuit: * C:\Users\Acer ASPIRE\OneDrive\Desktop\Laboratorio de Elec. Analogica\TP1\TP1 LTSPICE\Draft3.asc
Start Time: Thu Sep  4 18:53:24 2025
solver = Normal
Maximum thread count: 2
tnom = 27
temp = 27
method = modified trap
Direct Newton iteration for .op point succeeded.
Total elapsed time: 0.309 seconds.

