LTspice 24.1.9 for Windows
Circuit: C:\Users\Ezequiel\Documents\LAB\Laboratorio_Analogica\TP8\Draft1.net
Start Time: Thu Oct  2 17:53:48 2025
solver = Normal
Maximum thread count: 8
tnom = 27
temp = 27
method = trap
Direct Newton iteration for .op point succeeded.
Total elapsed time: 0.292 seconds.

Files loaded:
C:\Users\Ezequiel\Documents\LAB\Laboratorio_Analogica\TP8\Draft1.net

