LTspice 24.0.9 for Windows
Circuit: * C:\Users\Acer ASPIRE\OneDrive\Documentos\AALAboratorio\Laboratorio_Analogica\TP8\idea2_tp8.asc
Start Time: Fri Sep 12 16:26:36 2025
solver = Normal
Maximum thread count: 2
tnom = 27
temp = 27
method = modified trap
WARNING: Node NC_02 is floating.
WARNING: Node NC_04 is floating.
WARNING: Node NC_06 is floating.
WARNING: Node NC_08 is floating.

WARNING: Less than two connections to node nc_01.  This node is used by r5.
WARNING: Less than two connections to node nc_02.  This node is used by r5.
WARNING: Less than two connections to node nc_03.  This node is used by r6.
WARNING: Less than two connections to node nc_04.  This node is used by r6.
WARNING: Less than two connections to node nc_05.  This node is used by r7.
WARNING: Less than two connections to node nc_06.  This node is used by r7.
WARNING: Less than two connections to node nc_07.  This node is used by r10.
WARNING: Less than two connections to node nc_08.  This node is used by r10.
Direct Newton iteration failed to find .op point.  (Use ".option noopiter" to skip.)
Starting Gmin stepping
Gmin = 10
Gmin = 1.07374
Gmin = 0.115292
Gmin = 0.0123794
Gmin = 0.00132923
Gmin = 0.000142725
Gmin = 1.5325e-05
Gmin = 1.6455e-06
Gmin = 1.76685e-07
Gmin = 1.89714e-08
Gmin = 2.03704e-09
Gmin = 2.18725e-10
Gmin = 2.34854e-11
Gmin = 2.52173e-12
Gmin = 2.70769e-13
Gmin = 0
Gmin stepping succeeded in finding the operating point.

Total elapsed time: 0.704 seconds.

