LTspice 24.1.9 for Windows
Circuit: C:\Users\Ezequiel\Documents\LAB\Laboratorio_Analogica\TP12\Draft1.net
Start Time: Fri Oct 17 11:03:56 2025
solver = Normal
Maximum thread count: 8
tnom = 27
temp = 27
method = trap
Direct Newton iteration for .op point succeeded.
Total elapsed time: 6.054 seconds.

Files loaded:
C:\Users\Ezequiel\Documents\LAB\Laboratorio_Analogica\TP12\Draft1.net
C:\Users\Ezequiel\AppData\Local\LTspice\lib\sub\NE555.sub

