LTspice 24.1.9 for Windows
Circuit: C:\Users\Ezequiel\Documents\LAB\Laboratorio_Analogica\TP6\control_servo.net
Start Time: Wed Oct  8 18:04:47 2025
solver = Normal
Maximum thread count: 8
tnom = 27
temp = 27
method = trap
Direct Newton iteration failed to find .op point.  (Use ".option noopiter" to skip.)
Starting Gmin stepping
Gmin = 10
Gmin = 1.07374
Gmin = 0.115292
Gmin = 0.0123794
Gmin = 0.00132923
Gmin = 0.000142725
Gmin = 1.5325e-05
Gmin = 1.6455e-06
vernier = 0.5
Gmin = 3.06744e-07
vernier = 0.25
vernier = 0.125
vernier = 0.166667
Gmin = 2.52481e-07
vernier = 0.222222
Gmin = 1.57101e-07
vernier = 0.296296
vernier = 0.395061
Gmin = 7.30765e-08
vernier = 0.526748
vernier = 0.702331
Gmin = 2.23075e-08
vernier = 0.936441
Gmin = 3.47069e-09
vernier = 1
Gmin = 3.7746e-10
Gmin = 4.05295e-11
Gmin = 4.35182e-12
Gmin = 4.67273e-13
Gmin = 0
Gmin stepping succeeded in finding the operating point.

Total elapsed time: 0.555 seconds.

Files loaded:
C:\Users\Ezequiel\Documents\LAB\Laboratorio_Analogica\TP6\control_servo.net
C:\Users\Ezequiel\AppData\Local\LTspice\lib\cmp\standard.bjt
C:\Users\Ezequiel\AppData\Local\LTspice\lib\sub\LTC.lib

